xflr5 v6.58

Plane name :        Windtunnel 3D
Polar name :        T1-50.0 m/s-LLT
Free-stream speed :  50.000 m/s


   alpha      Beta       CL          CDi        CDv        CD         CY         Cl         Cm         Cn        Cni       QInf        XCP
   -3.000     0.000  -0.237581   0.003461   0.006723   0.010185   0.000000   0.000000   0.060460   0.000000   0.000000   50.0000     0.0595
   -2.900     0.000  -0.228638   0.003263   0.006708   0.009971   0.000000   0.000000   0.058216   0.000000   0.000000   50.0000     0.0595
   -2.800     0.000  -0.220682   0.003047   0.006694   0.009741   0.000000   0.000000   0.056212   0.000000  -0.000000   50.0000     0.0596
   -2.700     0.000  -0.212832   0.002834   0.006687   0.009521   0.000000   0.000000   0.054227   0.000000   0.000000   50.0000     0.0596
   -2.600     0.000  -0.204954   0.002629   0.006683   0.009312   0.000000   0.000000   0.052233   0.000000  -0.000000   50.0000     0.0596
   -2.500     0.000  -0.197063   0.002432   0.006683   0.009115   0.000000   0.000000   0.050233   0.000000  -0.000000   50.0000     0.0596
   -2.400     0.000  -0.189175   0.002242   0.006683   0.008926   0.000000   0.000000   0.048234   0.000000   0.000000   50.0000     0.0597
   -2.300     0.000  -0.181314   0.002061   0.006684   0.008745   0.000000   0.000000   0.046248   0.000000   0.000000   50.0000     0.0597
   -2.200     0.000  -0.173535   0.001888   0.006674   0.008562   0.000000   0.000000   0.044300   0.000000  -0.000000   50.0000     0.0597
   -2.100     0.000  -0.165753   0.001723   0.006667   0.008390   0.000000   0.000000   0.042352   0.000000   0.000000   50.0000     0.0598
   -2.000     0.000  -0.157926   0.001565   0.006665   0.008230   0.000000   0.000000   0.040380   0.000000   0.000000   50.0000     0.0598
   -1.900     0.000  -0.150035   0.001413   0.006662   0.008075   0.000000   0.000000   0.038374   0.000000   0.000000   50.0000     0.0599
   -1.800     0.000  -0.142061   0.001269   0.006654   0.007923   0.000000   0.000000   0.036327   0.000000  -0.000000   50.0000     0.0599
   -1.700     0.000  -0.134080   0.001131   0.006650   0.007781   0.000000   0.000000   0.034274   0.000000   0.000000   50.0000     0.0598
   -1.600     0.000  -0.126106   0.001002   0.006648   0.007650   0.000000   0.000000   0.032225   0.000000   0.000000   50.0000     0.0598
   -1.500     0.000  -0.118137   0.000880   0.006648   0.007528   0.000000   0.000000   0.030178   0.000000   0.000000   50.0000     0.0598
   -1.400     0.000  -0.110188   0.000767   0.006649   0.007416   0.000000   0.000000   0.028142   0.000000  -0.000000   50.0000     0.0598
   -1.300     0.000  -0.102264   0.000662   0.006649   0.007311   0.000000   0.000000   0.026118   0.000000  -0.000000   50.0000     0.0598
   -1.200     0.000  -0.094404   0.000565   0.006641   0.007206   0.000000   0.000000   0.024124   0.000000   0.000000   50.0000     0.0598
   -1.100     0.000  -0.086569   0.000476   0.006634   0.007110   0.000000   0.000000   0.022143   0.000000   0.000000   50.0000     0.0599
   -1.000     0.000  -0.078725   0.000395   0.006630   0.007025   0.000000   0.000000   0.020156   0.000000   0.000000   50.0000     0.0600
   -0.900     0.000  -0.070839   0.000320   0.006628   0.006948   0.000000   0.000000   0.018149   0.000000   0.000000   50.0000     0.0600
   -0.800     0.000  -0.062928   0.000254   0.006624   0.006878   0.000000   0.000000   0.016129   0.000000   0.000000   50.0000     0.0600
   -0.700     0.000  -0.054956   0.000195   0.006617   0.006811   0.000000   0.000000   0.014077   0.000000   0.000000   50.0000     0.0600
   -0.600     0.000  -0.046967   0.000143   0.006611   0.006754   0.000000   0.000000   0.012018   0.000000   0.000000   50.0000     0.0599
   -0.500     0.000  -0.038978   0.000099   0.006608   0.006707   0.000000   0.000000   0.009957   0.000000   0.000000   50.0000     0.0598
   -0.400     0.000  -0.030989   0.000064   0.006609   0.006672   0.000000   0.000000   0.007898   0.000000   0.000000   50.0000     0.0597
   -0.300     0.000  -0.023005   0.000036   0.006612   0.006648   0.000000   0.000000   0.005841   0.000000   0.000000   50.0000     0.0595
   -0.200     0.000  -0.015029   0.000016   0.006619   0.006635   0.000000   0.000000   0.003788   0.000000   0.000000   50.0000     0.0595
   -0.100     0.000  -0.007078   0.000004   0.006626   0.006630   0.000000   0.000000   0.001748   0.000000   0.000000   50.0000     0.0758
    0.000     0.000   0.000838  -0.000000   0.006629   0.006629   0.000000  -0.000000  -0.000273   0.000000  -0.000000   50.0000     0.1078
    0.100     0.000   0.008626   0.000003   0.006623   0.006626   0.000000  -0.000000  -0.002230   0.000000   0.000000   50.0000     0.0716
    0.200     0.000   0.016419   0.000014   0.006625   0.006639   0.000000  -0.000000  -0.004187   0.000000   0.000000   50.0000     0.0604
    0.300     0.000   0.024252   0.000033   0.006628   0.006661   0.000000  -0.000000  -0.006165   0.000000   0.000000   50.0000     0.0597
    0.400     0.000   0.032155   0.000059   0.006628   0.006688   0.000000  -0.000000  -0.008178   0.000000   0.000000   50.0000     0.0596
    0.500     0.000   0.040117   0.000094   0.006622   0.006716   0.000000  -0.000000  -0.010221   0.000000   0.000000   50.0000     0.0596
    0.600     0.000   0.048094   0.000136   0.006618   0.006754   0.000000  -0.000000  -0.012272   0.000000  -0.000000   50.0000     0.0597
    0.700     0.000   0.056080   0.000187   0.006616   0.006803   0.000000  -0.000000  -0.014329   0.000000  -0.000000   50.0000     0.0598
    0.800     0.000   0.064069   0.000245   0.006617   0.006862   0.000000  -0.000000  -0.016388   0.000000   0.000000   50.0000     0.0599
    0.900     0.000   0.072058   0.000311   0.006621   0.006932   0.000000  -0.000000  -0.018448   0.000000   0.000000   50.0000     0.0600
    1.000     0.000   0.080045   0.000385   0.006629   0.007013   0.000000  -0.000000  -0.020507   0.000000   0.000000   50.0000     0.0600
    1.100     0.000   0.087982   0.000466   0.006632   0.007099   0.000000  -0.000000  -0.022542   0.000000   0.000000   50.0000     0.0600
    1.200     0.000   0.095867   0.000555   0.006633   0.007188   0.000000  -0.000000  -0.024549   0.000000   0.000000   50.0000     0.0600
    1.300     0.000   0.103713   0.000651   0.006635   0.007286   0.000000  -0.000000  -0.026536   0.000000   0.000000   50.0000     0.0599
    1.400     0.000   0.111546   0.000755   0.006641   0.007395   0.000000  -0.000000  -0.028515   0.000000  -0.000000   50.0000     0.0598
    1.500     0.000   0.119387   0.000866   0.006653   0.007518   0.000000  -0.000000  -0.030499   0.000000   0.000000   50.0000     0.0598
    1.600     0.000   0.127293   0.000985   0.006658   0.007643   0.000000  -0.000000  -0.032513   0.000000   0.000000   50.0000     0.0598
    1.700     0.000   0.135235   0.001113   0.006659   0.007772   0.000000  -0.000000  -0.034546   0.000000   0.000000   50.0000     0.0598
    1.800     0.000   0.143195   0.001249   0.006660   0.007909   0.000000  -0.000000  -0.036587   0.000000   0.000000   50.0000     0.0598
    1.900     0.000   0.151165   0.001392   0.006661   0.008054   0.000000  -0.000000  -0.038633   0.000000   0.000000   50.0000     0.0598
    2.000     0.000   0.159130   0.001544   0.006665   0.008209   0.000000  -0.000000  -0.040677   0.000000   0.000000   50.0000     0.0598
    2.100     0.000   0.167041   0.001703   0.006668   0.008371   0.000000  -0.000000  -0.042692   0.000000   0.000000   50.0000     0.0598
    2.200     0.000   0.174912   0.001869   0.006672   0.008540   0.000000  -0.000000  -0.044687   0.000000   0.000000   50.0000     0.0598
    2.300     0.000   0.182742   0.002041   0.006677   0.008718   0.000000  -0.000000  -0.046661   0.000000   0.000000   50.0000     0.0597
    2.400     0.000   0.190520   0.002220   0.006685   0.008906   0.000000  -0.000000  -0.048608   0.000000   0.000000   50.0000     0.0597
    2.500     0.000   0.198327   0.002407   0.006691   0.009098   0.000000  -0.000000  -0.050567   0.000000   0.000000   50.0000     0.0596
    2.600     0.000   0.206187   0.002603   0.006692   0.009295   0.000000  -0.000000  -0.052551   0.000000  -0.000000   50.0000     0.0596
    2.700     0.000   0.214073   0.002807   0.006691   0.009498   0.000000  -0.000000  -0.054548   0.000000   0.000000   50.0000     0.0596
    2.800     0.000   0.221943   0.003018   0.006693   0.009711   0.000000   0.000000  -0.056537   0.000000   0.000000   50.0000     0.0596
    2.900     0.000   0.229811   0.003237   0.006697   0.009934   0.000000  -0.000000  -0.058524   0.000000   0.000000   50.0000     0.0596
    3.000     0.000   0.237641   0.003463   0.006708   0.010171   0.000000  -0.000000  -0.060494   0.000000   0.000000   50.0000     0.0595
    3.100     0.000   0.245439   0.003695   0.006718   0.010414   0.000000  -0.000000  -0.062447   0.000000   0.000000   50.0000     0.0595
    3.200     0.000   0.253236   0.003935   0.006725   0.010661   0.000000  -0.000000  -0.064399   0.000000   0.000000   50.0000     0.0594
    3.300     0.000   0.261027   0.004183   0.006730   0.010912   0.000000  -0.000000  -0.066346   0.000000   0.000000   50.0000     0.0594
    3.400     0.000   0.268804   0.004437   0.006731   0.011168   0.000000  -0.000000  -0.068286   0.000000   0.000000   50.0000     0.0594
    3.500     0.000   0.276543   0.004698   0.006738   0.011436   0.000000  -0.000000  -0.070206   0.000000   0.000000   50.0000     0.0593
    3.600     0.000   0.284265   0.004966   0.006751   0.011716   0.000000  -0.000000  -0.072120   0.000000  -0.000000   50.0000     0.0593
    3.700     0.000   0.292029   0.005242   0.006762   0.012004   0.000000  -0.000000  -0.074054   0.000000   0.000000   50.0000     0.0592
    3.800     0.000   0.299863   0.005527   0.006771   0.012299   0.000000  -0.000000  -0.076024   0.000000   0.000000   50.0000     0.0592
    3.900     0.000   0.307744   0.005822   0.006780   0.012602   0.000000  -0.000000  -0.078017   0.000000   0.000000   50.0000     0.0592
    4.000     0.000   0.315617   0.006125   0.006790   0.012914   0.000000  -0.000000  -0.080008   0.000000   0.000000   50.0000     0.0592
    4.100     0.000   0.323453   0.006434   0.006800   0.013234   0.000000  -0.000000  -0.081982   0.000000   0.000000   50.0000     0.0592
    4.200     0.000   0.331210   0.006748   0.006814   0.013561   0.000000  -0.000000  -0.083917   0.000000   0.000000   50.0000     0.0592
    4.300     0.000   0.338964   0.007066   0.006826   0.013893   0.000000   0.000000  -0.085838   0.000000   0.000000   50.0000     0.0591
    4.400     0.000   0.346715   0.007397   0.006833   0.014231   0.000000  -0.000000  -0.087774   0.000000   0.000000   50.0000     0.0591
    4.500     0.000   0.354490   0.007735   0.006841   0.014576   0.000000  -0.000000  -0.089715   0.000000   0.000000   50.0000     0.0591
    4.600     0.000   0.362239   0.008078   0.006854   0.014932   0.000000  -0.000000  -0.091641   0.000000  -0.000000   50.0000     0.0590
    4.700     0.000   0.369980   0.008425   0.006874   0.015299   0.000000  -0.000000  -0.093555   0.000000  -0.000000   50.0000     0.0590
    4.800     0.000   0.377666   0.008784   0.006893   0.015677   0.000000  -0.000000  -0.095462   0.000000   0.000000   50.0000     0.0590
    4.900     0.000   0.385459   0.009151   0.006909   0.016060   0.000000  -0.000000  -0.097412   0.000000   0.000000   50.0000     0.0589
    5.000     0.000   0.393202   0.009523   0.006929   0.016453   0.000000  -0.000000  -0.099339   0.000000  -0.000000   50.0000     0.0589
    5.100     0.000   0.400895   0.009902   0.006950   0.016852   0.000000  -0.000000  -0.101243   0.000000   0.000000   50.0000     0.0589
    5.200     0.000   0.408541   0.010286   0.006971   0.017257   0.000000  -0.000000  -0.103123   0.000000  -0.000000   50.0000     0.0588
    5.300     0.000   0.416209   0.010678   0.006989   0.017667   0.000000  -0.000000  -0.105012   0.000000   0.000000   50.0000     0.0588
    5.400     0.000   0.423756   0.011072   0.007018   0.018090   0.000000  -0.000000  -0.106843   0.000000   0.000000   50.0000     0.0588
    5.500     0.000   0.431328   0.011473   0.007047   0.018520   0.000000  -0.000000  -0.108685   0.000000   0.000000   50.0000     0.0587
    5.600     0.000   0.438737   0.011871   0.007093   0.018964   0.000000  -0.000000  -0.110443   0.000000   0.000000   50.0000     0.0586
    5.700     0.000   0.446049   0.012275   0.007149   0.019424   0.000000  -0.000000  -0.112173   0.000000   0.000000   50.0000     0.0586
    5.800     0.000   0.453000   0.012676   0.007238   0.019914   0.000000  -0.000000  -0.113761   0.000000   0.000000   50.0000     0.0585
    5.900     0.000   0.459629   0.013061   0.007367   0.020428   0.000000  -0.000000  -0.115196   0.000000   0.000000   50.0000     0.0583
    6.000     0.000   0.465980   0.013444   0.007517   0.020961   0.000000  -0.000000  -0.116523   0.000000   0.000000   50.0000     0.0582
    6.100     0.000   0.472285   0.013822   0.007684   0.021505   0.000000  -0.000000  -0.117819   0.000000   0.000000   50.0000     0.0580
    6.200     0.000   0.478569   0.014205   0.007855   0.022059   0.000000  -0.000000  -0.119113   0.000000  -0.000000   50.0000     0.0579
    6.300     0.000   0.484832   0.014591   0.008031   0.022622   0.000000  -0.000000  -0.120401   0.000000   0.000000   50.0000     0.0577
    6.400     0.000   0.491092   0.014988   0.008206   0.023195   0.000000  -0.000000  -0.121704   0.000000   0.000000   50.0000     0.0576
    6.500     0.000   0.497449   0.015389   0.008380   0.023769   0.000000  -0.000000  -0.123042   0.000000   0.000000   50.0000     0.0575
    6.600     0.000   0.503843   0.015792   0.008550   0.024342   0.000000  -0.000000  -0.124383   0.000000   0.000000   50.0000     0.0573
    6.700     0.000   0.510280   0.016205   0.008709   0.024914   0.000000  -0.000000  -0.125741   0.000000   0.000000   50.0000     0.0572
    6.800     0.000   0.516749   0.016624   0.008863   0.025487   0.000000  -0.000000  -0.127115   0.000000   0.000000   50.0000     0.0571
    6.900     0.000   0.523210   0.017052   0.009015   0.026067   0.000000  -0.000000  -0.128491   0.000000   0.000000   50.0000     0.0570
    7.000     0.000   0.529729   0.017487   0.009161   0.026649   0.000000  -0.000000  -0.129892   0.000000   0.000000   50.0000     0.0569
    7.100     0.000   0.536338   0.017926   0.009308   0.027234   0.000000  -0.000000  -0.131320   0.000000   0.000000   50.0000     0.0568
    7.200     0.000   0.543007   0.018375   0.009444   0.027819   0.000000  -0.000000  -0.132776   0.000000  -0.000000   50.0000     0.0567
    7.300     0.000   0.549731   0.018835   0.009569   0.028404   0.000000   0.000000  -0.134254   0.000000   0.000000   50.0000     0.0566
    7.400     0.000   0.556475   0.019302   0.009690   0.028992   0.000000  -0.000000  -0.135737   0.000000   0.000000   50.0000     0.0565
    7.500     0.000   0.563301   0.019776   0.009806   0.029582   0.000000  -0.000000  -0.137248   0.000000  -0.000000   50.0000     0.0564
    7.600     0.000   0.570125   0.020258   0.009921   0.030179   0.000000  -0.000000  -0.138765   0.000000  -0.000000   50.0000     0.0564
    7.700     0.000   0.576913   0.020749   0.010033   0.030782   0.000000  -0.000000  -0.140270   0.000000   0.000000   50.0000     0.0563
    7.800     0.000   0.583684   0.021240   0.010149   0.031389   0.000000  -0.000000  -0.141758   0.000000   0.000000   50.0000     0.0562
    7.900     0.000   0.590407   0.021732   0.010266   0.031998   0.000000  -0.000000  -0.143218   0.000000   0.000000   50.0000     0.0561
    8.000     0.000   0.597137   0.022230   0.010381   0.032611   0.000000  -0.000000  -0.144681   0.000000   0.000000   50.0000     0.0560
    8.100     0.000   0.603935   0.022734   0.010492   0.033226   0.000000  -0.000000  -0.146163   0.000000   0.000000   50.0000     0.0560
    8.200     0.000   0.610701   0.023247   0.010604   0.033850   0.000000  -0.000000  -0.147641   0.000000  -0.000000   50.0000     0.0559
    8.300     0.000   0.617467   0.023766   0.010710   0.034476   0.000000  -0.000000  -0.149116   0.000000   0.000000   50.0000     0.0558
    8.400     0.000   0.624215   0.024292   0.010814   0.035106   0.000000  -0.000000  -0.150581   0.000000  -0.000000   50.0000     0.0557
    8.500     0.000   0.630946   0.024823   0.010917   0.035740   0.000000  -0.000000  -0.152034   0.000000   0.000000   50.0000     0.0556
    8.600     0.000   0.637631   0.025356   0.011024   0.036380   0.000000  -0.000000  -0.153465   0.000000  -0.000000   50.0000     0.0556
    8.700     0.000   0.644358   0.025897   0.011120   0.037017   0.000000  -0.000000  -0.154905   0.000000   0.000000   50.0000     0.0555
    8.800     0.000   0.651009   0.026440   0.011224   0.037664   0.000000  -0.000000  -0.156313   0.000000   0.000000   50.0000     0.0554
    8.900     0.000   0.657723   0.026986   0.011330   0.038316   0.000000  -0.000000  -0.157741   0.000000  -0.000000   50.0000     0.0553
    9.000     0.000   0.664419   0.027541   0.011434   0.038976   0.000000  -0.000000  -0.159166   0.000000   0.000000   50.0000     0.0552
    9.100     0.000   0.671104   0.028101   0.011541   0.039642   0.000000  -0.000000  -0.160584   0.000000   0.000000   50.0000     0.0551
    9.200     0.000   0.677735   0.028664   0.011659   0.040322   0.000000  -0.000000  -0.161983   0.000000   0.000000   50.0000     0.0551
    9.300     0.000   0.684539   0.029239   0.011778   0.041017   0.000000  -0.000000  -0.163465   0.000000   0.000000   50.0000     0.0550
    9.400     0.000   0.691585   0.029840   0.011893   0.041734   0.000000  -0.000000  -0.165079   0.000000   0.000000   50.0000     0.0549
    9.500     0.000   0.698693   0.030443   0.012019   0.042462   0.000000  -0.000000  -0.166719   0.000000   0.000000   50.0000     0.0549
    9.600     0.000   0.705749   0.031052   0.012159   0.043212   0.000000  -0.000000  -0.168355   0.000000   0.000000   50.0000     0.0549
    9.700     0.000   0.712920   0.031685   0.012297   0.043982   0.000000  -0.000000  -0.170067   0.000000   0.000000   50.0000     0.0549
    9.800     0.000   0.720589   0.032350   0.012429   0.044780   0.000000  -0.000000  -0.172019   0.000000   0.000000   50.0000     0.0549
    9.900     0.000   0.728271   0.033032   0.012562   0.045594   0.000000  -0.000000  -0.173996   0.000000   0.000000   50.0000     0.0549
   10.000     0.000   0.736076   0.033721   0.012695   0.046416   0.000000  -0.000000  -0.176021  -0.000000  -0.000000   50.0000     0.0549
   10.100     0.000   0.743849   0.034429   0.012826   0.047255   0.000000   0.000000  -0.178056   0.000000  -0.000000   50.0000     0.0550
   10.200     0.000   0.751712   0.035153   0.012954   0.048107   0.000000  -0.000000  -0.180142   0.000000   0.000000   50.0000     0.0550
   10.300     0.000   0.759651   0.035879   0.013102   0.048981   0.000000  -0.000000  -0.182269   0.000000   0.000000   50.0000     0.0551
   10.400     0.000   0.767587   0.036616   0.013255   0.049871   0.000000  -0.000000  -0.184410   0.000000   0.000000   50.0000     0.0551
   10.500     0.000   0.775665   0.037373   0.013416   0.050788   0.000000  -0.000000  -0.186635   0.000000   0.000000   50.0000     0.0552
   10.600     0.000   0.783895   0.038156   0.013554   0.051710   0.000000  -0.000000  -0.188926  -0.000000  -0.000000   50.0000     0.0553
   10.700     0.000   0.792336   0.038949   0.013693   0.052643   0.000000  -0.000000  -0.191305   0.000000   0.000000   50.0000     0.0554
   10.800     0.000   0.800773   0.039770   0.013828   0.053599   0.000000  -0.000000  -0.193713   0.000000   0.000000   50.0000     0.0555
   10.900     0.000   0.809092   0.040600   0.013963   0.054563   0.000000  -0.000000  -0.196078   0.000000   0.000000   50.0000     0.0556
   11.000     0.000   0.816753   0.041382   0.014094   0.055477   0.000000  -0.000000  -0.198108   0.000000   0.000000   50.0000     0.0556
   11.100     0.000   0.823436   0.042075   0.014225   0.056300   0.000000  -0.000000  -0.199624   0.000000   0.000000   50.0000     0.0555
   11.200     0.000   0.829616   0.042742   0.014370   0.057112   0.000000  -0.000000  -0.200922   0.000000   0.000000   50.0000     0.0555
   11.300     0.000   0.835358   0.043384   0.014517   0.057901   0.000000  -0.000000  -0.202016   0.000000   0.000000   50.0000     0.0554
   11.400     0.000   0.840729   0.043998   0.014676   0.058674   0.000000  -0.000000  -0.202930   0.000000  -0.000000   50.0000     0.0552
   11.500     0.000   0.845913   0.044597   0.014844   0.059441   0.000000  -0.000000  -0.203758   0.000000  -0.000000   50.0000     0.0551
   11.600     0.000   0.851382   0.045209   0.015005   0.060215   0.000000  -0.000000  -0.204703   0.000000   0.000000   50.0000     0.0550
   11.700     0.000   0.856239   0.045777   0.015163   0.060940   0.000000  -0.000000  -0.205352   0.000000   0.000000   50.0000     0.0548
   11.800     0.000   0.861405   0.046366   0.015318   0.061685   0.000000  -0.000000  -0.206142   0.000000   0.000000   50.0000     0.0546
   11.900     0.000   0.866749   0.046967   0.015480   0.062447   0.000000  -0.000000  -0.207019   0.000000   0.000000   50.0000     0.0545
   12.000     0.000   0.871870   0.047570   0.015657   0.063227   0.000000  -0.000000  -0.207833   0.000000   0.000000   50.0000     0.0544
   12.100     0.000   0.877081   0.048171   0.015845   0.064016   0.000000   0.000000  -0.208688  -0.000000  -0.000000   50.0000     0.0542
   12.200     0.000   0.882642   0.048817   0.016019   0.064836   0.000000  -0.000000  -0.209726   0.000000   0.000000   50.0000     0.0541
   12.300     0.000   0.887640   0.049425   0.016193   0.065618   0.000000  -0.000000  -0.210506   0.000000   0.000000   50.0000     0.0540
   12.400     0.000   0.892672   0.050010   0.016379   0.066389   0.000000  -0.000000  -0.211276   0.000000   0.000000   50.0000     0.0539
   12.500     0.000   0.897655   0.050607   0.016575   0.067183   0.000000  -0.000000  -0.212058   0.000000   0.000000   50.0000     0.0537
   12.600     0.000   0.902519   0.051183   0.016790   0.067973   0.000000  -0.000000  -0.212785   0.000000   0.000000   50.0000     0.0536
   12.700     0.000   0.907354   0.051765   0.017009   0.068774   0.000000  -0.000000  -0.213517   0.000000   0.000000   50.0000     0.0535
   12.800     0.000   0.912527   0.052404   0.017217   0.069622   0.000000  -0.000000  -0.214441   0.000000   0.000000   50.0000     0.0534
   12.900     0.000   0.917760   0.053046   0.017431   0.070477   0.000000  -0.000000  -0.215397  -0.000000  -0.000000   50.0000     0.0533
   13.000     0.000   0.922990   0.053691   0.017652   0.071343   0.000000  -0.000000  -0.216366   0.000000   0.000000   50.0000     0.0532
   13.100     0.000   0.928131   0.054320   0.017883   0.072203   0.000000  -0.000000  -0.217296   0.000000   0.000000   50.0000     0.0531
   13.200     0.000   0.933112   0.054968   0.018113   0.073082   0.000000  -0.000000  -0.218194   0.000000   0.000000   50.0000     0.0530
   13.300     0.000   0.937807   0.055527   0.018352   0.073879   0.000000  -0.000000  -0.218887   0.000000   0.000000   50.0000     0.0528
   13.400     0.000   0.942410   0.056098   0.018597   0.074695   0.000000  -0.000000  -0.219573   0.000000   0.000000   50.0000     0.0527
   13.500     0.000   0.946980   0.056669   0.018854   0.075524   0.000000  -0.000000  -0.220262   0.000000   0.000000   50.0000     0.0526
   13.600     0.000   0.951419   0.057232   0.019128   0.076360   0.000000  -0.000000  -0.220913   0.000000   0.000000   50.0000     0.0525
   13.700     0.000   0.955827   0.057759   0.019417   0.077177   0.000000  -0.000000  -0.221533   0.000000   0.000000   50.0000     0.0523
   13.800     0.000   0.960324   0.058356   0.019697   0.078053   0.000000  -0.000000  -0.222266   0.000000   0.000000   50.0000     0.0522
   13.900     0.000   0.964914   0.058957   0.019984   0.078941   0.000000  -0.000000  -0.223053   0.000000   0.000000   50.0000     0.0521
   14.000     0.000   0.969433   0.059553   0.020285   0.079838   0.000000  -0.000000  -0.223829   0.000000   0.000000   50.0000     0.0520
   14.100     0.000   0.973848   0.060144   0.020598   0.080743   0.000000  -0.000000  -0.224581   0.000000   0.000000   50.0000     0.0519
   14.200     0.000   0.978146   0.060728   0.020929   0.081657   0.000000  -0.000000  -0.225305   0.000000   0.000000   50.0000     0.0518
   14.300     0.000   0.982297   0.061301   0.021280   0.082581   0.000000  -0.000000  -0.225990   0.000000   0.000000   50.0000     0.0517
   14.400     0.000   0.986254   0.061865   0.021655   0.083519   0.000000  -0.000000  -0.226628   0.000000   0.000000   50.0000     0.0517
   14.500     0.000   0.990053   0.062416   0.022054   0.084470   0.000000  -0.000000  -0.227225  -0.000000  -0.000000   50.0000     0.0516
   14.600     0.000   0.993872   0.062968   0.022460   0.085428   0.000000   0.000000  -0.227839   0.000000  -0.000000   50.0000     0.0515
   14.700     0.000   0.997827   0.063532   0.022858   0.086391   0.000000  -0.000000  -0.228518   0.000000   0.000000   50.0000     0.0514
   14.800     0.000   1.001783   0.064091   0.023258   0.087349   0.000000  -0.000000  -0.229197  -0.000000  -0.000000   50.0000     0.0513
   14.900     0.000   1.005826   0.064658   0.023645   0.088302   0.000000  -0.000000  -0.229905  -0.000000  -0.000000   50.0000     0.0512
   15.000     0.000   1.009705   0.065209   0.024028   0.089238   0.000000  -0.000000  -0.230536   0.000000   0.000000   50.0000     0.0511
   15.100     0.000   1.013317   0.065712   0.024437   0.090149   0.000000  -0.000000  -0.231049   0.000000   0.000000   50.0000     0.0510
   15.200     0.000   1.016874   0.066213   0.024860   0.091073   0.000000  -0.000000  -0.231558   0.000000   0.000000   50.0000     0.0509
   15.300     0.000   1.020563   0.066729   0.025274   0.092003   0.000000  -0.000000  -0.232125   0.000000   0.000000   50.0000     0.0508
   15.400     0.000   1.024193   0.067248   0.025690   0.092938   0.000000  -0.000000  -0.232684   0.000000   0.000000   50.0000     0.0507
   15.500     0.000   1.027678   0.067727   0.026129   0.093855   0.000000  -0.000000  -0.233182   0.000000   0.000000   50.0000     0.0506
   15.600     0.000   1.031179   0.068232   0.026575   0.094807   0.000000  -0.000000  -0.233735   0.000000   0.000000   50.0000     0.0505
   15.700     0.000   1.034614   0.068747   0.027035   0.095782   0.000000  -0.000000  -0.234302   0.000000   0.000000   50.0000     0.0504
   15.800     0.000   1.037873   0.069243   0.027522   0.096765   0.000000  -0.000000  -0.234826   0.000000  -0.000000   50.0000     0.0503
   15.900     0.000   1.041026   0.069729   0.028027   0.097756   0.000000  -0.000000  -0.235330   0.000000  -0.000000   50.0000     0.0503
   16.000     0.000   1.044291   0.070227   0.028527   0.098754   0.000000  -0.000000  -0.235886   0.000000  -0.000000   50.0000     0.0502
   16.100     0.000   1.047549   0.070733   0.029030   0.099763   0.000000  -0.000000  -0.236461   0.000000   0.000000   50.0000     0.0501
   16.200     0.000   1.050651   0.071232   0.029552   0.100783   0.000000  -0.000000  -0.237011   0.000000  -0.000000   50.0000     0.0500
   16.300     0.000   1.053669   0.071717   0.030091   0.101808   0.000000  -0.000000  -0.237547  -0.000000  -0.000000   50.0000     0.0500
   16.400     0.000   1.056579   0.072192   0.030644   0.102837   0.000000  -0.000000  -0.238060   0.000000  -0.000000   50.0000     0.0499
   16.500     0.000   1.059334   0.072658   0.031218   0.103875   0.000000  -0.000000  -0.238548   0.000000   0.000000   50.0000     0.0498
   16.600     0.000   1.061965   0.073106   0.031816   0.104922   0.000000  -0.000000  -0.239020   0.000000   0.000000   50.0000     0.0498
   16.700     0.000   1.064502   0.073549   0.032430   0.105978   0.000000  -0.000000  -0.239483   0.000000   0.000000   50.0000     0.0497
   16.800     0.000   1.066918   0.073978   0.033065   0.107042   0.000000  -0.000000  -0.239927  -0.000000  -0.000000   50.0000     0.0496
   16.900     0.000   1.069143   0.074386   0.033730   0.108117   0.000000  -0.000000  -0.240341   0.000000  -0.000000   50.0000     0.0496
   17.000     0.000   1.071259   0.074782   0.034416   0.109197   0.000000  -0.000000  -0.240737   0.000000  -0.000000   50.0000     0.0495
   17.100     0.000   1.073212   0.075154   0.035130   0.110284   0.000000  -0.000000  -0.241103   0.000000   0.000000   50.0000     0.0495
   17.200     0.000   1.075070   0.075529   0.035859   0.111388   0.000000  -0.000000  -0.241472  -0.000000  -0.000000   50.0000     0.0494
   17.300     0.000   1.076935   0.075912   0.036593   0.112505   0.000000  -0.000000  -0.241873  -0.000000  -0.000000   50.0000     0.0494
   17.400     0.000   1.078692   0.076288   0.037351   0.113639   0.000000  -0.000000  -0.242278   0.000000  -0.000000   50.0000     0.0493
   17.500     0.000   1.080380   0.076658   0.038127   0.114785   0.000000  -0.000000  -0.242685  -0.000000  -0.000000   50.0000     0.0493
   17.600     0.000   1.081959   0.077018   0.038929   0.115947   0.000000  -0.000000  -0.243089  -0.000000  -0.000000   50.0000     0.0493
   17.700     0.000   1.083359   0.077362   0.039767   0.117129   0.000000  -0.000000  -0.243478   0.000000  -0.000000   50.0000     0.0492
   17.800     0.000   1.084718   0.077699   0.040622   0.118321   0.000000  -0.000000  -0.243873  -0.000000  -0.000000   50.0000     0.0492
   17.900     0.000   1.085849   0.078016   0.041520   0.119535   0.000000  -0.000000  -0.244241  -0.000000  -0.000000   50.0000     0.0492
   18.000     0.000   1.086874   0.078321   0.042442   0.120763   0.000000  -0.000000  -0.244603  -0.000000  -0.000000   50.0000     0.0492
   18.100     0.000   1.087753   0.078612   0.043397   0.122009   0.000000  -0.000000  -0.244953  -0.000000  -0.000000   50.0000     0.0492
   18.200     0.000   1.088384   0.078884   0.044403   0.123286   0.000000  -0.000000  -0.245278  -0.000000  -0.000000   50.0000     0.0492
   18.300     0.000   1.088939   0.079144   0.045436   0.124580   0.000000  -0.000000  -0.245605  -0.000000  -0.000000   50.0000     0.0491
   18.400     0.000   1.089160   0.079372   0.046531   0.125902   0.000000  -0.000000  -0.245878  -0.000000  -0.000000   50.0000     0.0492
   18.500     0.000   1.089185   0.079579   0.047673   0.127252   0.000000  -0.000000  -0.246138  -0.000000  -0.000000   50.0000     0.0492
   18.600     0.000   1.088965   0.079759   0.048873   0.128632   0.000000  -0.000000  -0.246364   0.000000   0.000000   50.0000     0.0492
   18.700     0.000   1.088380   0.079887   0.050131   0.130019   0.000000  -0.000000  -0.246497   0.000000   0.000000   50.0000     0.0492
   18.800     0.000   1.041422   0.080834   0.072678   0.153511   0.000000  -0.000000  -0.251440   0.000000   0.000000   50.0000     0.0530
   18.900     0.000   1.043200   0.081118   0.073496   0.154614   0.000000   0.000000  -0.251898   0.000000   0.000000   50.0000     0.0530
   19.000     0.000   1.044708   0.081385   0.074385   0.155770   0.000000  -0.000000  -0.252352   0.000000   0.000000   50.0000     0.0529
   19.100     0.000   1.045818   0.081602   0.075376   0.156978   0.000000  -0.000000  -0.252786   0.000000   0.000000   50.0000     0.0529
   19.200     0.000   1.045291   0.081636   0.076743   0.158379   0.000000  -0.000000  -0.253076   0.000000   0.000000   50.0000     0.0530
   19.300     0.000   0.986994   0.078772   0.100243   0.179016   0.000000   0.000000  -0.255491   0.000000   0.000000   50.0000     0.0571
   19.400     0.000   0.990177   0.079155   0.100884   0.180039   0.000000   0.000000  -0.256228   0.000000  -0.000000   50.0000     0.0570
   19.500     0.000   0.993089   0.079570   0.101559   0.181129   0.000000   0.000000  -0.256907   0.000000  -0.000000   50.0000     0.0570
   19.600     0.000   0.995857   0.079982   0.102278   0.182260   0.000000  -0.000000  -0.257558   0.000000   0.000000   50.0000     0.0569
   19.700     0.000   0.998798   0.080396   0.103019   0.183415   0.000000   0.000000  -0.258304   0.000000   0.000000   50.0000     0.0569
   19.800     0.000   1.001859   0.080841   0.103775   0.184616   0.000000   0.000000  -0.259145   0.000000  -0.000000   50.0000     0.0569
   19.900     0.000   1.004877   0.081298   0.104545   0.185843   0.000000   0.000000  -0.260012   0.000000  -0.000000   50.0000     0.0568
   20.000     0.000   1.007816   0.081739   0.105327   0.187067   0.000000   0.000000  -0.260862   0.000000  -0.000000   50.0000     0.0568
   20.100     0.000   1.010679   0.082166   0.106121   0.188286   0.000000   0.000000  -0.261692   0.000000  -0.000000   50.0000     0.0568
   20.200     0.000   1.013433   0.082567   0.106933   0.189500   0.000000   0.000000  -0.262497   0.000000   0.000000   50.0000     0.0568
   20.300     0.000   1.016156   0.082970   0.107750   0.190720   0.000000   0.000000  -0.263307   0.000000  -0.000000   50.0000     0.0568
   20.400     0.000   1.018870   0.083377   0.108571   0.191948   0.000000   0.000000  -0.264134   0.000000  -0.000000   50.0000     0.0568
   20.500     0.000   1.021506   0.083779   0.109402   0.193181   0.000000   0.000000  -0.264959   0.000000  -0.000000   50.0000     0.0568
   20.600     0.000   1.024085   0.084169   0.110246   0.194414   0.000000   0.000000  -0.265777   0.000000  -0.000000   50.0000     0.0568
   20.700     0.000   1.026463   0.084535   0.111111   0.195645   0.000000   0.000000  -0.266555   0.000000  -0.000000   50.0000     0.0567
   20.800     0.000   1.028778   0.084883   0.111992   0.196876   0.000000   0.000000  -0.267325   0.000000  -0.000000   50.0000     0.0567
   20.900     0.000   1.030984   0.085209   0.112901   0.198109   0.000000   0.000000  -0.268084   0.000000   0.000000   50.0000     0.0567
   21.000     0.000   1.033050   0.085509   0.113839   0.199348   0.000000   0.000000  -0.268823   0.000000   0.000000   50.0000     0.0567


